*HEADING
cubit(pts/meshes/axon_cube_L1000um_D443nm_factor5_19087tets.inp): 03/18/2013: 17
version: 13.1
**
********************************** P A R T S **********************************
*PART, NAME=Part-Default
**
********************************** N O D E S **********************************
*NODE, NSET=ALLNODES
       1,    2.215567e-01,   -2.215567e-01,    1.000000e+03
       2,    2.215567e-01,    2.215567e-01,    1.000000e+03
       3,   -2.215567e-01,    2.215567e-01,    1.000000e+03
       4,   -2.215567e-01,   -2.215567e-01,    1.000000e+03
       5,    2.215567e-01,    2.215567e-01,    0.000000e+00
       6,    2.215567e-01,   -2.215567e-01,    0.000000e+00
       7,   -2.215567e-01,   -2.215567e-01,    0.000000e+00
       8,   -2.215567e-01,    2.215567e-01,    0.000000e+00
       9,   -2.215567e-01,   -2.215567e-01,    9.994417e+02
      10,   -2.215567e-01,   -2.215567e-01,    9.988833e+02
      11,   -2.215567e-01,   -2.215567e-01,    9.983250e+02
      12,   -2.215567e-01,   -2.215567e-01,    9.977666e+02
      13,   -2.215567e-01,   -2.215567e-01,    9.972083e+02
      14,   -2.215567e-01,   -2.215567e-01,    9.966499e+02
      15,   -2.215567e-01,   -2.215567e-01,    9.960916e+02
      16,   -2.215567e-01,   -2.215567e-01,    9.955332e+02
      17,   -2.215567e-01,   -2.215567e-01,    9.949749e+02
      18,   -2.215567e-01,   -2.215567e-01,    9.944165e+02
      19,   -2.215567e-01,   -2.215567e-01,    9.938582e+02
      20,   -2.215567e-01,   -2.215567e-01,    9.932998e+02
** ... 8298 like lines cut
**
********************************** E L E M E N T S ****************************
*ELEMENT, TYPE=C3D4, ELSET=EB1
       1,    7169,    7170,    7171,    7172
       2,    7173,    7174,    7175,    7176
       3,    7177,    4525,     945,    7178
       4,    7169,    7179,    7180,    7181
       5,    7174,    7175,    7176,    7181
       6,    7169,    7174,    7173,    7176
       7,    7177,    6315,    4525,    7178
       8,    7182,    7183,    7184,    7185
       9,    3978,    7186,    7187,     398
      10,    7185,    7176,    7173,    7184
      11,     903,    2693,     904,    7173
      12,    7180,    7181,    7188,    7189
      13,    7177,    6315,    7178,    2735
      14,    7169,    7174,    7176,    7181
      15,    7177,     945,    2735,    7178
      16,    7185,    7173,    7169,    7190
      17,    7172,    7183,    7184,    7191
      18,    6650,    6649,    7192,    7193
      19,    7185,    7176,    7182,    7169
      20,    7182,    7180,    7194,    7171
** ... 19067 like lines cut
**
********************************** P R O P E R T I E S ************************
*SOLID SECTION, ELSET=EB1, MATERIAL=Default-Steel
**
*END PART
**
**
**
********************************** E N D   P A R T S **********************************
**
**
********************************** A S S E M B L Y ************************************
**
*ASSEMBLY, NAME=ASSEMBLY1
**
*INSTANCE, NAME=Part-Default_1, PART=Part-Default
*END INSTANCE
**
*END ASSEMBLY
**
**
**
*MATERIAL, NAME = Default-Steel
*ELASTIC, TYPE=ISOTROPIC
2.068000e+05, 2.900000e-01
*DENSITY
7.000000e-06
*CONDUCTIVITY,TYPE=ISO
4.500000e-02
*SPECIFIC HEAT
5.000000e+02
**
**
************************************** H I S T O R Y *************************************
**
*PREPRINT
**
**************************************** S T E P 1 ***************************************
*STEP,INC=100,NAME=Default Set
**
*STATIC
1, 1, 1e-05, 1
**
**
**
**
*END STEP
