*HEADING
cubit(box/active/chen2013_python_examples/examples/ip3/tets.inp): 11/01/2013: 18
version: 14.0
**
********************************** P A R T S **********************************
*PART, NAME=Part-Default
**
********************************** N O D E S **********************************
*NODE, NSET=ALLNODES
       1,   -1.145865e-01,    1.935804e-02,   -2.334632e-01
       2,   -1.163726e-01,    1.533326e-01,   -1.923461e-01
       3,   -3.606141e-02,    1.935804e-02,   -2.313001e-01
       4,   -1.506930e-01,    1.935804e-02,   -2.324595e-01
       5,   -1.389859e-01,    1.454049e-01,   -1.923461e-01
       6,   -4.693719e-02,    2.419861e-01,   -1.373463e-01
       7,   -2.800122e-02,    2.460554e-01,   -1.373463e-01
       8,   -4.583821e-03,    2.311140e-01,   -1.373463e-01
       9,   -7.691346e-02,    1.157252e-01,   -1.923461e-01
      10,   -3.405252e-02,    1.935804e-02,   -1.840518e-01
      11,   -4.545877e-02,    1.935804e-02,   -1.923461e-01
      12,   -1.070020e-01,    1.935804e-02,   -2.734613e-02
      13,   -1.011016e-01,    4.293472e-02,   -2.734613e-02
      14,   -1.301115e-01,    1.935801e-02,   -7.512015e-02
      15,   -9.930221e-02,    1.935801e-02,   -2.025529e-02
      16,   -9.617205e-02,    1.935804e-02,   -1.993366e-02
      17,   -5.160741e-02,    1.935804e-02,   -1.595161e-02
      18,   -4.823205e-02,    5.890995e-02,   -2.734613e-02
      19,   -3.892390e-02,    1.935804e-02,   -1.590230e-02
      20,   -3.113718e-02,    1.163442e-01,   -8.234620e-02
** ... 2362 like lines cut
**
********************************** E L E M E N T S ****************************
*ELEMENT, TYPE=C3D4, ELSET=EB1
       1,      54,    1189,    1190,    1191
       2,      54,      93,    1189,    1192
       3,      54,      96,      93,    1192
       4,      47,      93,    1193,    1194
       5,      51,      54,    1189,    1190
       6,     930,    1195,    1196,    1197
       7,     929,    1195,     930,    1197
       8,     926,    1195,     927,    1198
       9,    1189,    1196,    1197,    1199
      10,     782,    1200,    1201,    1202
      11,     645,     647,     726,    1203
      12,    1200,    1204,    1205,    1206
      13,     781,    1200,    1202,    1206
      14,     781,    1200,     782,    1202
      15,      71,    1200,    1207,    1208
      16,    1209,    1210,    1211,    1212
      17,    1209,    1210,    1212,    1213
      18,    1209,    1214,    1215,    1216
      19,    1209,    1213,    1212,    1217
      20,    1209,    1211,    1214,    1218
** ... 8129 like lines cut
*ELEMENT, TYPE=C3D4, ELSET=EB2
    8150,     527,     529,    1985,    1986
    8151,    1985,    1987,    1988,    1989
    8152,    1985,    1990,    1991,    1992
    8153,     537,    1985,    1986,    1993
    8154,    1987,    1994,    1989,    1995
    8155,     517,    1996,    1995,    1997
    8156,     552,    1994,    1996,    1997
    8157,    1985,    1986,    1993,    1998
    8158,     462,     950,     955,    1999
    8159,     562,     564,    2000,    2001
    8160,     564,    2000,    2001,    2002
    8161,    2000,    2001,    2002,    2003
    8162,     563,    2000,    2002,    2004
    8163,    2000,    2005,    2004,    2006
    8164,     351,    2007,     375,    2008
    8165,     363,     373,    2007,    2009
    8166,     373,    2007,    2009,    2010
    8167,    2007,    2010,    2008,    2011
    8168,    2007,    2011,    2008,    2012
    8169,    2007,    2009,    2013,    2014
** ... 4999 like lines cut
**
********************************** P R O P E R T I E S ************************
*SOLID SECTION, ELSET=EB1, MATERIAL=Default-Steel
*SOLID SECTION, ELSET=EB2, MATERIAL=Default-Steel
**
*END PART
**
**
**
********************************** E N D   P A R T S **********************************
**
**
********************************** A S S E M B L Y ************************************
**
*ASSEMBLY, NAME=ASSEMBLY1
**
*INSTANCE, NAME=Part-Default_1, PART=Part-Default
*END INSTANCE
**
*END ASSEMBLY
**
**
**
*MATERIAL, NAME = Default-Steel
*ELASTIC, TYPE=ISOTROPIC
2.068000e+05, 2.900000e-01
*DENSITY
7.000000e-06
*CONDUCTIVITY,TYPE=ISO
4.500000e-02
*SPECIFIC HEAT
5.000000e+02
**
**
************************************** H I S T O R Y *************************************
**
*PREPRINT
**
**************************************** S T E P 1 ***************************************
*STEP,INC=100,NAME=Default Set
**
*STATIC
1, 1, 1e-05, 1
**
**
**
**
*END STEP
