*HEADING
cubit(box/active/chen2013_python_examples/examples/ip3/tris.inp): 11/01/2013: 18
version: 14.0
**
********************************** P A R T S **********************************
*PART, NAME=Part-Default
**
********************************** N O D E S **********************************
*NODE, NSET=ALLNODES
     181,   -2.223460e-02,    4.129897e-01,    1.294173e-02
     182,   -2.069510e-02,    3.954552e-01,    9.826582e-03
     183,   -1.675973e-02,    4.012903e-01,    1.932515e-03
     184,   -2.390511e-02,    4.041974e-01,    1.767172e-02
     185,   -2.328426e-02,    3.969513e-01,    2.514033e-02
     186,   -2.057363e-02,    3.861445e-01,    1.549581e-02
     187,   -1.945003e-02,    3.898430e-01,    3.613885e-03
     188,   -2.036579e-02,    3.804660e-01,    5.086247e-03
     189,   -1.822801e-02,    3.824746e-01,   -2.772994e-03
     190,   -1.112429e-02,    3.892978e-01,   -1.033512e-02
     191,   -8.585870e-03,    3.989179e-01,   -7.184234e-03
     192,   -1.348438e-02,    4.119945e-01,    4.486740e-04
     193,   -6.989706e-03,    4.094118e-01,   -5.149283e-03
     194,   -6.858826e-03,    4.189252e-01,   -2.409752e-03
     195,    3.368571e-03,    4.164565e-01,   -7.220212e-03
     196,    1.803208e-03,    4.080846e-01,   -9.476703e-03
     197,    8.793503e-03,    4.100236e-01,   -9.743728e-03
     198,    9.754337e-03,    4.289665e-01,   -4.474968e-03
     199,    1.715749e-02,    4.220216e-01,   -6.498124e-03
     200,    2.005218e-02,    4.365378e-01,   -2.432268e-03
** ... 988 like lines cut
**
********************************** E L E M E N T S ****************************
*ELEMENT, TYPE=STRI3, ELSET=EB1
     357,     182,     183,     181
     358,     182,     181,     184
     359,     182,     184,     185
     360,     185,     186,     182
     361,     187,     182,     186
     362,     186,     188,     187
     363,     188,     189,     187
     364,     187,     189,     190
     365,     190,     183,     187
     366,     183,     190,     191
     367,     192,     183,     191
     368,     191,     193,     192
     369,     194,     192,     193
     370,     195,     194,     193
     371,     193,     196,     195
     372,     195,     196,     197
     373,     198,     195,     197
     374,     197,     199,     198
     375,     200,     198,     199
     376,     199,     201,     200
** ... 1992 like lines cut
**
********************************** P R O P E R T I E S ************************
*SHELL SECTION, ELSET=EB1, SECTION INTEGRATION=SIMPSON, MATERIAL=Default-Steel
1.000000e+00
**
*END PART
**
**
**
********************************** E N D   P A R T S **********************************
**
**
********************************** A S S E M B L Y ************************************
**
*ASSEMBLY, NAME=ASSEMBLY1
**
*INSTANCE, NAME=Part-Default_1, PART=Part-Default
*END INSTANCE
**
*END ASSEMBLY
**
**
**
*MATERIAL, NAME = Default-Steel
*ELASTIC, TYPE=ISOTROPIC
2.068000e+05, 2.900000e-01
*DENSITY
7.000000e-06
*CONDUCTIVITY,TYPE=ISO
4.500000e-02
*SPECIFIC HEAT
5.000000e+02
**
**
************************************** H I S T O R Y *************************************
**
*PREPRINT
**
**************************************** S T E P 1 ***************************************
*STEP,INC=100,NAME=Default Set
**
*STATIC
1, 1, 1e-05, 1
**
**
**
**
*END STEP
