*HEADING
cubit(/Users/wchen/share/meshes/1x1x1_cube.inp): 06/26/2017: 12:29:33
version: 14.0
**
********************************** P A R T S **********************************
*PART, NAME=Part-Default
**
********************************** N O D E S **********************************
*NODE, NSET=ALLNODES
       1,    5.000000e-01,   -5.000000e-01,    5.000000e-01
       2,    5.000000e-01,    5.000000e-01,    5.000000e-01
       3,    5.000000e-01,   -4.000000e-01,    5.000000e-01
       4,    5.000000e-01,   -3.000000e-01,    5.000000e-01
       5,    5.000000e-01,   -2.000000e-01,    5.000000e-01
       6,    5.000000e-01,   -1.000000e-01,    5.000000e-01
       7,    5.000000e-01,    0.000000e+00,    5.000000e-01
       8,    5.000000e-01,    1.000000e-01,    5.000000e-01
       9,    5.000000e-01,    2.000000e-01,    5.000000e-01
      10,    5.000000e-01,    3.000000e-01,    5.000000e-01
      11,    5.000000e-01,    4.000000e-01,    5.000000e-01
      12,   -5.000000e-01,    5.000000e-01,    5.000000e-01
      13,    4.000000e-01,    5.000000e-01,    5.000000e-01
      14,    3.000000e-01,    5.000000e-01,    5.000000e-01
      15,    2.000000e-01,    5.000000e-01,    5.000000e-01
      16,    1.000000e-01,    5.000000e-01,    5.000000e-01
      17,    0.000000e+00,    5.000000e-01,    5.000000e-01
      18,   -1.000000e-01,    5.000000e-01,    5.000000e-01
      19,   -2.000000e-01,    5.000000e-01,    5.000000e-01
      20,   -3.000000e-01,    5.000000e-01,    5.000000e-01
** ... 1821 like lines cut
**
********************************** E L E M E N T S ****************************
*ELEMENT, TYPE=C3D4, ELSET=EB1
       1,     695,     696,     697,     698
       2,     695,     699,     700,     701
       3,     699,     702,     703,     695
       4,     695,     701,     696,     698
       5,     695,     703,     701,     704
       6,     695,     698,     704,     701
       7,     705,     706,     707,     708
       8,     709,     710,     711,     712
       9,     713,     710,     711,     709
      10,     714,     715,     716,     717
      11,     705,     718,     719,     720
      12,     720,     705,     712,     710
      13,     705,     713,     721,     706
      14,     705,     706,     722,     707
      15,     722,     707,     706,     723
      16,     705,     724,     722,     725
      17,     705,     722,     724,     726
      18,     709,     727,     728,     729
      19,     705,     709,     726,     730
      20,     701,     709,     730,     726
** ... 8808 like lines cut
**
********************************** P R O P E R T I E S ************************
*SOLID SECTION, ELSET=EB1, MATERIAL=Default-Steel
**
*END PART
**
**
**
********************************** E N D   P A R T S **********************************
**
**
********************************** A S S E M B L Y ************************************
**
*ASSEMBLY, NAME=ASSEMBLY1
**
*INSTANCE, NAME=Part-Default_1, PART=Part-Default
*END INSTANCE
**
*END ASSEMBLY
**
**
**
*MATERIAL, NAME = Default-Steel
*ELASTIC, TYPE=ISOTROPIC
2.068000e+05, 2.900000e-01
*DENSITY
7.000000e-06
*CONDUCTIVITY,TYPE=ISO
4.500000e-02
*SPECIFIC HEAT
5.000000e+02
**
**
************************************** H I S T O R Y *************************************
**
*PREPRINT
**
**************************************** S T E P 1 ***************************************
*STEP,INC=100,NAME=Default Set
**
*STATIC
1, 1, 1e-05, 1
**
**
**
**
*END STEP
