*HEADING
cubit(0_20_0.7.inp): 11/04/2013: 13:34:45
version: 14.0
**
********************************** P A R T S **********************************
*PART, NAME=Part-Default
**
********************************** N O D E S **********************************
*NODE, NSET=ALLNODES
    3623,    3.500000e-01,    0.000000e+00,   -1.000000e+01
    3624,    2.681156e-01,   -2.249757e-01,   -1.000000e+01
    3625,    6.077686e-02,   -3.446827e-01,   -1.000000e+01
    3626,   -1.750000e-01,   -3.031089e-01,   -1.000000e+01
    3627,   -3.288924e-01,   -1.197071e-01,   -1.000000e+01
    3628,   -3.288924e-01,    1.197071e-01,   -1.000000e+01
    3629,   -1.750000e-01,    3.031089e-01,   -1.000000e+01
    3630,    6.077686e-02,    3.446827e-01,   -1.000000e+01
    3631,    2.681156e-01,    2.249757e-01,   -1.000000e+01
    3632,    3.500000e-01,    0.000000e+00,    1.000000e+01
    3633,    2.681156e-01,    2.249757e-01,    1.000000e+01
    3634,    6.077686e-02,    3.446827e-01,    1.000000e+01
    3635,   -1.750000e-01,    3.031089e-01,    1.000000e+01
    3636,   -3.288924e-01,    1.197071e-01,    1.000000e+01
    3637,   -3.288924e-01,   -1.197071e-01,    1.000000e+01
    3638,   -1.750000e-01,   -3.031089e-01,    1.000000e+01
    3639,    6.077686e-02,   -3.446827e-01,    1.000000e+01
    3640,    2.681156e-01,   -2.249757e-01,    1.000000e+01
    3641,   -1.750771e-01,   -3.030644e-01,   -1.030648e-02
    3642,    6.055598e-02,   -3.447216e-01,   -1.005426e-02
** ... 1291 like lines cut
**
********************************** E L E M E N T S ****************************
*ELEMENT, TYPE=C3D4, ELSET=EB1
   13206,    4504,    4505,    4506,    4507
   13207,    3888,    4505,    3887,    4506
   13208,    3757,    4508,    4509,    4510
   13209,    3889,    4504,    3870,    4511
   13210,    3890,    3889,    4504,    4507
   13211,    3889,    4505,    4504,    4507
   13212,    3659,    3649,    3641,    4512
   13213,    4409,    4513,    4514,    4515
   13214,    4253,    4516,    4243,    4517
   13215,    4279,    4260,    4516,    4518
   13216,    4271,    4516,    4253,    4519
   13217,    4396,    4390,    4520,    4521
   13218,    4516,    4522,    4519,    4523
   13219,    4271,    4516,    4519,    4523
   13220,    4516,    4522,    4518,    4524
   13221,    3753,    4525,    3734,    4526
   13222,    3771,    4525,    3753,    4527
   13223,    3771,    3770,    4525,    4528
   13224,    3770,    3751,    4525,    4529
   13225,    4525,    4527,    4528,    4530
** ... 4667 like lines cut
**
********************************** P R O P E R T I E S ************************
*SOLID SECTION, ELSET=EB1, MATERIAL=Default-Steel
**
*END PART
**
**
**
********************************** E N D   P A R T S **********************************
**
**
********************************** A S S E M B L Y ************************************
**
*ASSEMBLY, NAME=ASSEMBLY1
**
*INSTANCE, NAME=Part-Default_1, PART=Part-Default
*END INSTANCE
**
*END ASSEMBLY
**
**
**
*MATERIAL, NAME = Default-Steel
*ELASTIC, TYPE=ISOTROPIC
2.068000e+05, 2.900000e-01
*DENSITY
7.000000e-06
*CONDUCTIVITY,TYPE=ISO
4.500000e-02
*SPECIFIC HEAT
5.000000e+02
**
**
************************************** H I S T O R Y *************************************
**
*PREPRINT
**
**************************************** S T E P 1 ***************************************
*STEP,INC=100,NAME=Default Set
**
*STATIC
1, 1, 1e-05, 1
**
**
**
**
*END STEP
